/*--------------------------------*- C++ -*----------------------------------*\
| =========                 |                                                 |
| \\      /  F ield         | OpenFOAM: The Open Source CFD Toolbox           |
|  \\    /   O peration     | Version:  v2106                                 |
|   \\  /    A nd           | Website:  www.openfoam.com                      |
|    \\/     M anipulation  |                                                 |
\*---------------------------------------------------------------------------*/
FoamFile
{
    version     2.0;
    format      ascii;
    class       dictionary;
    object      fvSolution;
}
// * * * * * * * * * * * * * * * * * * * * * * * * * * * * * * * * * * * * * //

solvers
{
	p
	{
		solver GKOCG;
		smoother GaussSeidel;
		tolerance 1e-07;
		relTol 0.01;
		preconditioner GISAI;
		forceHostBuffer 0;
		verbose 1;
		maxIter 1000;
		executor cuda;
	}

	Phi
	{
		$p;
	}

	U
	{
		solver GKOBiCGStab;
		smoother GaussSeidel;
		tolerance 1e-08;
		relTol 0.1;
		nSweeps 1;
		preconditioner BJ;
		forceHostBuffer 0;
		verbose 1;
		executor cuda;
	}

	k
	{
		$U;
	}

	omega
	{
		$U;
	}

	nuTilda
	{
		$U;
	}

}

SIMPLE
{
	nNonOrthogonalCorrectors 0;
	residualControl
	{
		p 1e-08;
		U 1e-08;
		k 1e-08;
		omega 1e-08;
		nuTilda 1e-08;
	}

}

potentialFlow
{
	nNonOrthogonalCorrectors 10;
}

relaxationFactors
{
	fields
	{
		p 0.3;
	}

	equations
	{
		U 0.7;
		k 0.7;
		omega 0.7;
		nuTilda 0.7;
	}

}

cache
{
	grad ("U");
}

//*************************************************************************//
