/*--------------------------------*- C++ -*----------------------------------*\
| =========                 |                                                 |
| \\      /  F ield         | OpenFOAM: The Open Source CFD Toolbox           |
|  \\    /   O peration     | Version:  v2006                                 |
|   \\  /    A nd           | Website:  www.openfoam.com                      |
|    \\/     M anipulation  |                                                 |
\*---------------------------------------------------------------------------*/
FoamFile
{
    version     2.0;
    format      ascii;
    class       dictionary;
    location    "system";
    object      fvSolution;
}

solvers
{
	p
	{
		solver None;
		preconditioner None;
		tolerance 1e-04;
		relTol 0;
		maxIter 6000;
	}

	pFinal
	{
		$p;
		relTol 0;
	}

	U
	{
		solver PBiCGStab;
		preconditioner DILU;
		tolerance 0;
		relTol 0;
		maxIter 5;
	}

}

PISO
{
	nCorrectors 2;
	nNonOrthogonalCorrectors 0;
	pRefCell 0;
	pRefValue 0;
}

//*************************************************************************//
